@<TRIPOS>MOLECULE
generated by VMD
   51   40    1    0    0
SMALL
USER_CHARGES
****
Energy = 0

@<TRIPOS>ATOM
      1  CD        12.9730   -2.8220    0.0000  CT2    1  ARG        0.200000
      2  HD1       12.6490   -3.8650    0.0000  HA2    1  ARG        0.090000
      3  HD2       13.6020   -2.6760    0.8920  HA2    1  ARG        0.090000
      4  HD3       13.6020   -2.6760   -0.8920  HA2    1  ARG        0.000000
      5  NE        11.8050   -1.9770    0.0000  ND2    1  ARG        -0.700000
      6  HE        10.8860   -2.3880    0.0000   HC    1  ARG        0.440000
      7  CZ        11.7830   -0.5970    0.0000    C    1  ARG        0.640000
      8  NH1       10.6400    0.0000    0.0000  NC2    1  ARG        -0.400000
      9 HH11       10.7550    1.0130    0.0000   HC    1  ARG        0.460000
     10  NH2       13.0320    0.0000    0.0000  NC2    1  ARG        -0.800000
     11 HH21       13.0970    1.0040    0.0000   HC    1  ARG        0.460000
     12 HH22       13.8910   -0.5240    0.0000   HC    1  ARG        0.460000
     13  CG        19.5590   -2.1080    0.0000  CT2    2  GLU        -0.280000
     14  HG1       19.0140   -2.4780    0.8810  HA2    2  GLU        0.090000
     15  HG2       19.0140   -2.4780   -0.8810  HA2    2  GLU        0.090000
     16  HG3       20.5700   -2.5370    0.0000  HA2    2  GLU        0.000000
     17  CD        19.5800   -0.5320    0.0000   CC    2  GLU        0.620000
     18  OE1       18.4400    0.0000    0.0000   OC    2  GLU        -0.760000
     19  OE2       20.7180    0.0000    0.0000   OC    2  GLU        -0.760000
     20  OH2       23.4400    0.0000    0.0000   OT    3  TIP3        -0.834000
     21  H1        22.8400   -0.7630    0.0000   HT    3  TIP3        0.417000
     22  H2        22.8400    0.7630    0.0000   HT    3  TIP3        0.417000
     23  OH2        0.0000    0.0000    0.0000   OT    4  H3O        -0.834000
     24  H1         0.9890    0.0000    0.0000   HT    4  H3O        0.417000
     25  H2        -0.3680    0.8210    0.4110   HT    4  H3O        0.417000
     26  H3        -0.3680   -0.8180    0.4170   HT    4  H3O        0.417000
     27  CB         2.3210   -2.4700    0.0330  CT2    5  HSE        -0.080000
     28  HB1        1.6690   -2.4600   -0.8490  HA2    5  HSE        0.090000
     29  HB2        1.6700   -2.4380    0.9150  HA2    5  HSE        0.090000
     30  HB3        2.8650   -3.4200    0.0440  HA2    5  HSE        0.000000
     31  ND1        2.8000    0.0000    0.0000  NR2    5  HSE        -0.700000
     32  CG         3.2650   -1.3070    0.0170 CPH1    5  HSE        0.220000
     33  CE1        3.8890    0.7470   -0.0100 CPH2    5  HSE        0.250000
     34  HE1        3.9090    1.8290   -0.0240  HR1    5  HSE        0.130000
     35  NE2        5.0410    0.0000    0.0000  NR1    5  HSE        -0.360000
     36  HE2        5.9890    0.3470   -0.0050    H    5  HSE        0.320000
     37  CD2        4.6410   -1.3250    0.0180 CPH1    5  HSE        -0.050000
     38  HD2        5.3520   -2.1380    0.0280  HR3    5  HSE        0.090000
     39  CE         7.8730   -1.4720    0.0000  CT2    6  LYS        0.210000
     40  HE1        6.8540   -1.8830    0.0000  HA2    6  LYS        0.050000
     41  HE2        8.3860   -1.8740    0.8820  HA2    6  LYS        0.050000
     42  HE3        8.3860   -1.8740   -0.8820  HA2    6  LYS        0.000000
     43  NZ         7.8400    0.0000    0.0000  NH3    6  LYS        -0.310000
     44  HZ1        8.3250    0.3690    0.8120   HC    6  LYS        0.000000
     45  HZ2        8.3250    0.3690   -0.8120   HC    6  LYS        0.000000
     46  POT       -3.0000    3.0000    0.0000  POT    7  POT        1.000000
     47  POT       -3.0000    0.0000    0.0000  POT    7  POT        1.000000
     48  POT       -3.0000   -3.0000    0.0000  POT    7  POT        1.000000
     49  CLA       25.6400    3.0000    0.0000  CLA    7  CLA        -1.000000
     50  CLA       25.6400    0.0000    0.0000  CLA    7  CLA        -1.000000
     51  CLA       25.6400   -3.0000    0.0000  CLA    7  CLA        -1.000000
@<TRIPOS>BOND
    1     1     2  1
    2     1     3  1
    3     1     4  1
    4     1     5  1
    5     5     6  1
    6     5     7  1
    7     7     8  1
    8     7    10  1
    9     8     9  1
   10    10    11  1
   11    10    12  1
   12    13    14  1
   13    13    15  1
   14    13    16  1
   15    13    17  1
   16    17    18  1
   17    17    19  1
   18    20    21  1
   19    20    22  1
   20    23    24  1
   21    23    25  1
   22    23    26  1
   23    27    28  1
   24    27    29  1
   25    27    30  1
   26    27    32  1
   27    31    32  1
   28    31    33  1
   29    32    37  1
   30    33    34  1
   31    33    35  1
   32    35    37  1
   33    35    36  1
   34    37    38  1
   35    39    40  1
   36    39    41  1
   37    39    42  1
   38    39    43  1
   39    43    44  1
   40    43    45  1

@<TRIPOS>SUBSTRUCTURE
1 ****        1 TEMP                        0 ****  **** 0 ROOT
