@<TRIPOS>MOLECULE
generated by VMD
   51   40    1    0    0
SMALL
USER_CHARGES
****
Energy = 0

@<TRIPOS>ATOM
      1  C         12.9730   -2.8220    0.0000  CT2    1  ARG        0.200000
      2  H         12.6775   -3.8643    0.0929  HA2    1  ARG        0.090000
      3  H         13.5955   -2.5242    0.8903  HA2    1  ARG        0.090000
      4  H         13.5862   -2.6556   -0.9522  HA2    1  ARG        0.000000
      5  N         11.7785   -1.9386   -0.0528  NC2    1  ARG        -0.700000
      6  H         10.8808   -2.3302   -0.1072   HC    1  ARG        0.440000
      7  C         11.8411   -0.6130    0.0340    C    1  ARG        0.640000
      8  N         10.6741    0.0264    0.0417  NC2    1  ARG        -0.400000
      9  H         10.7703    0.9896   -0.1203   HC    1  ARG        0.460000
     10  N         12.9667    0.0522   -0.0175  NC2    1  ARG        -0.800000
     11  H         13.0884    1.0356   -0.0239   HC    1  ARG        0.460000
     12  H         13.8300   -0.4563    0.0462   HC    1  ARG        0.460000
     13  C         19.5590   -2.1080    0.0000  CT2    2  GLU        -0.280000
     14  H         19.0293   -2.4879    0.9098  HA2    2  GLU        0.090000
     15  H         19.0650   -2.3715   -0.9217  HA2    2  GLU        0.090000
     16  H         20.5837   -2.4659   -0.0206  HA2    2  GLU        0.000000
     17  C         19.5538   -0.5868    0.0122   CC    2  GLU        0.620000
     18  O         18.4266    0.0012   -0.0003   OC    2  GLU        -0.760000
     19  O         20.5665    0.0601    0.0274   OC    2  GLU        -0.760000
     20  O         22.7561    0.0144    0.0533   OT    3  TIP3        -0.834000
     21  H         22.0531   -0.5587    0.2804   HT    3  TIP3        0.417000
     22  H         22.1285    0.6999    0.1643   HT    3  TIP3        0.417000
     23  O          0.0000    0.0000    0.0000   OT    4  H3O        -0.834000
     24  H          1.7982    0.4111   -0.0420   HT    4  H3O        0.417000
     25  H         -0.0480    0.7688    0.7078   HT    4  H3O        0.417000
     26  H          0.1346   -0.7925    0.7077   HT    4  H3O        0.417000
     27  C          2.3210   -2.4700    0.0330  CT2    5  HSE        -0.080000
     28  H          1.7495   -2.5657   -0.9003  HA2    5  HSE        0.090000
     29  H          1.6204   -2.3602    0.8717  HA2    5  HSE        0.090000
     30  H          2.8439   -3.4224    0.2265  HA2    5  HSE        0.000000
     31  N          2.8381   -0.0233   -0.0531  NR2    5  HSE        -0.700000
     32  C          3.2379   -1.3537    0.0097 CPH1    5  HSE        0.220000
     33  C          3.9249    0.8047   -0.0422 CPH2    5  HSE        0.250000
     34  H          3.9287    1.8843   -0.0226  HR1    5  HSE        0.130000
     35  N          5.0210    0.0060   -0.0382  NR1    5  HSE        -0.360000
     36  H          6.2271    0.2191   -0.0074    H    5  HSE        0.320000
     37  C          4.5898   -1.3621    0.0120 CPH1    5  HSE        -0.050000
     38  H          5.2287   -2.2243    0.0809  HR3    5  HSE        0.090000
     39  C          7.8730   -1.4720    0.0000  CT2    6  LYS        0.210000
     40  H          6.9615   -1.9227   -0.1179  HA2    6  LYS        0.050000
     41  H          8.2874   -1.7881    0.9959  HA2    6  LYS        0.050000
     42  H          8.5472   -1.8859   -0.7653  HA2    6  LYS        0.000000
     43  N          7.8288    0.0028   -0.0510  NH3    6  LYS        -0.310000
     44  H          8.3962    0.4135    0.7249   HC    6  LYS        0.000000
     45  H          8.1616    0.3703   -0.9709   HC    6  LYS        0.000000
     46  P         -3.0000    3.0000    0.0000  POT    7  POT        1.000000
     47  P         -3.0000    0.0000    0.0000  POT    7  POT        1.000000
     48  P         -3.0000   -3.0000    0.0000  POT    7  POT        1.000000
     49  C         25.6400    3.0000    0.0000  CLA    7  CLA        -1.000000
     50  C         25.6400    0.0000    0.0000  CLA    7  CLA        -1.000000
     51  C         25.6400   -3.0000    0.0000  CLA    7  CLA        -1.000000
@<TRIPOS>BOND
    1     1     2  1
    2     1     3  1
    3     1     4  1
    4     1     5  1
    5     5     6  1
    6     5     7  1
    7     7     8  1
    8     7    10  1
    9     8     9  1
   10    10    11  1
   11    10    12  1
   12    13    14  1
   13    13    15  1
   14    13    16  1
   15    13    17  1
   16    17    18  1
   17    17    19  1
   18    20    21  1
   19    20    22  1
   20    23    24  1
   21    23    25  1
   22    23    26  1
   23    27    28  1
   24    27    29  1
   25    27    30  1
   26    27    32  1
   27    31    32  1
   28    31    33  1
   29    32    37  1
   30    33    34  1
   31    33    35  1
   32    35    37  1
   33    35    36  1
   34    37    38  1
   35    39    40  1
   36    39    41  1
   37    39    42  1
   38    39    43  1
   39    43    44  1
   40    43    45  1

@<TRIPOS>SUBSTRUCTURE
1 ****        1 TEMP                        0 ****  **** 0 ROOT
