@<TRIPOS>MOLECULE
*****
 20 16 0 0 0
SMALL
GASTEIGER

@<TRIPOS>ATOM
      1 O           0.0000    0.0000    0.0000 O       1  HOH1       -0.4105
      2 H           0.9890    0.0000    0.0000 H       1  HOH0        0.2052
      3 H          -0.3680    0.8210    0.4110 H       1  HOH0        0.2052
      4 H          -0.3680   -0.8180    0.4170 H       1  UNK2        0.0000
      5 N           2.8000    0.0000    0.0000 N       2  LIG3       -0.1298
      6 C           3.9430   -0.5971    0.0000 C       2  LIG3        0.3760
      7 N           5.1917    0.0000    0.0000 N       2  LIG3       -0.2893
      8 N           3.9655   -1.9771    0.0000 N       2  LIG3       -0.2788
      9 C           5.1333   -2.8216    0.0000 C       2  LIG3        0.0534
     10 H           2.9148    1.0135    0.0000 H       2  LIG3        0.3062
     11 H           5.2570    1.0036    0.0000 H       2  LIG3        0.2546
     12 H           6.0507   -0.5240    0.0000 H       2  LIG3        0.2546
     13 H           3.0456   -2.3882    0.0000 H       2  LIG3        0.2576
     14 H           4.8086   -3.8649    0.0000 H       2  LIG3        0.0618
     15 H           5.7625   -2.6764    0.8921 H       2  LIG3        0.0618
     16 H           5.7625   -2.6764   -0.8921 H       2  LIG3        0.0618
     17 O           8.0000    0.0000    0.0000 O       3  HOH4       -0.4105
     18 H           8.6000   -0.7630    0.0000 H       3  HOH0        0.2052
     19 H           8.6000    0.7630    0.0000 H       3  HOH0        0.2052
     20 Cl          8.6000    0.7630    0.0000 H       3  HOH0        0.2052
@<TRIPOS>BOND
     1    16     9    1
     2    10     5    1
     3    19    17    1
     4    18    17    1
     5    14     9    1
     6    13     8    1
     7     1     2    1
     8     1     3    1
     9     9     8    1
    10     9    15    1
    11     8     6    1
    12     7     6    1
    13     7    11    1
    14     7    12    1
    15     6     5    2
    16     1     4    2
